%NProcShared=2
#n B3LYP/6-31G(d) Opt

 Title

0 1
O         -0.22100       -0.26100       -0.05700
O          2.36200       -0.26100       -0.05700
O          2.33200        3.34200       -0.05700
O          2.86800        0.84700        2.59000
O          0.16800        1.06300        1.68900
O          1.04900        4.55200        2.45100
C          0.32700        0.98600        0.23500
C          1.81400        1.05200       -0.20900
C          2.65200        2.09200        0.55900
C          2.33600        2.07500        2.07400
C          0.82200        2.14100        2.35900
C          0.20500        3.49800        1.97300
H          0.43000       -0.99500        0.14400
H          2.81100       -0.35300        0.82600
H          2.41700        4.09100        0.58500
H          2.14900        0.16500        2.65300
H          0.90200        4.70800        3.40700
H         -0.33700        1.73900       -0.23000
H          1.86800        1.23700       -1.31200
H          3.74200        1.90500        0.39300
H          2.89600        2.87400        2.61300
H          0.61700        1.89500        3.43100
H         -0.82200        3.60500        2.36000
H          0.19900        3.65800        0.87300

