%chk=glicose.chk
%mem=32Gb 
%mproc=20
# opt freq hf/6-31g(d) pop=chelpg

calculo HF glicose

0  1
O
O  1  r2
O  2  r3  1  a3
O  2  r4  1  a4  3  d4
O  1  r5  2  a5  3  d5
O  3  r6  2  a6  1  d6
C  1  r7  2  a7  3  d7
C  2  r8  1  a8  3  d8
C  3  r9  2  a9  1  d9
C  4  r10  2  a10  1  d10
C  5  r11  1  a11  2  d11
C  6  r12  3  a12  2  d12
H  1  r13  2  a13  3  d13
H  2  r14  1  a14  3  d14
H  3  r15  2  a15  1  d15
H  4  r16  2  a16  1  d16
H  6  r17  3  a17  2  d17
H  7  r18  1  a18  2  d18
H  8  r19  2  a19  1  d19
H  9  r20  3  a20  2  d20
H  10  r21  4  a21  2  d21
H  11  r22  5  a22  1  d22
H  12  r23  6  a23  3  d23
H  12  r24  6  a24  3  d24
Variables:
r2= 2.5830
r3= 3.6031
a3=  89.52
r4= 2.9138
a4= 100.00
d4=  67.29
r5= 2.2255
a5=  79.93
d5= 307.17
r6= 3.0660
a6= 113.46
d6=  63.09
r7= 1.3930
a7=  66.83
d7= 346.82
r8= 1.4309
a8=  67.48
d8= 353.40
r9= 1.4298
a9=  28.83
d9= 116.68
r10= 1.4343
a10=  86.24
d10= 291.46
r11= 1.4278
a11= 153.81
d11=  46.12
r12= 1.4324
a12=  71.53
d12= 314.03
r13= 1.0015
a13=  49.46
d13= 195.31
r14= 0.9949
a14= 116.83
d14=  95.95
r15= 0.9901
a15= 139.09
d15=  98.09
r16= 0.9930
a16=  70.78
d16=  44.18
r17= 0.9797
a17= 157.49
d17=  53.82
r18= 1.1064
a18= 106.56
d18= 143.93
r19= 1.1197
a19= 103.76
d19= 261.07
r20= 1.1183
a20= 107.48
d20= 101.01
r21= 1.1147
a21= 104.68
d21= 212.32
r22= 1.1188
a22= 101.52
d22= 198.65
r23= 1.1027
a23= 111.12
d23= 200.41
r24= 1.1116
a24= 103.15
d24= 317.26


