
  NIST    08031214553D 1   1.00000  -687.15621
Copyright by the U.S. Sec. Commerce on behalf of U.S.A. All rights reserved.
 24 24  0  0  0  0  0  0  0  0999 V2000
   -5.7519   -1.6398   -0.0058 C    0  0  0  0  0  0  0  0  0  0  0  0
   -6.4221   -3.0017    0.1713 C    0  0  0  0  0  0  0  0  0  0  0  0
   -7.8060   -2.7922    0.7747 C    0  0  0  0  0  0  0  0  0  0  0  0
   -8.6245   -1.8263   -0.0765 C    0  0  0  0  0  0  0  0  0  0  0  0
   -7.8392   -0.5203   -0.3643 C    0  0  0  0  0  0  0  0  0  0  0  0
   -6.5501   -0.7955   -0.8436 O    0  0  0  0  0  0  0  0  0  0  0  0
   -9.8194   -1.5387    0.6559 O    0  0  0  0  0  0  0  0  0  0  0  0
   -8.4325   -4.0657    0.8777 O    0  0  0  0  0  0  0  0  0  0  0  0
   -5.6077   -3.7942    1.0175 O    0  0  0  0  0  0  0  0  0  0  0  0
   -8.5119    0.3241   -1.4544 C    0  0  0  0  0  0  0  0  0  0  0  0
   -7.7895    0.2592    0.8275 O    0  0  0  0  0  0  0  0  0  0  0  0
   -9.8092    0.7442   -1.0206 O    0  0  0  0  0  0  0  0  0  0  0  0
   -4.7903   -1.7433   -0.5125 H    0  0  0  0  0  0  0  0  0  0  0  0
   -5.5890   -1.1698    0.9710 H    0  0  0  0  0  0  0  0  0  0  0  0
   -6.5404   -3.4753   -0.8171 H    0  0  0  0  0  0  0  0  0  0  0  0
   -7.6735   -2.3546    1.7773 H    0  0  0  0  0  0  0  0  0  0  0  0
   -8.8606   -2.3151   -1.0319 H    0  0  0  0  0  0  0  0  0  0  0  0
  -10.3177   -0.9013    0.1052 H    0  0  0  0  0  0  0  0  0  0  0  0
   -9.3195   -3.9139    1.2427 H    0  0  0  0  0  0  0  0  0  0  0  0
   -6.1426   -4.5710    1.2525 H    0  0  0  0  0  0  0  0  0  0  0  0
   -7.8670    1.1821   -1.6817 H    0  0  0  0  0  0  0  0  0  0  0  0
   -8.6566   -0.2600   -2.3664 H    0  0  0  0  0  0  0  0  0  0  0  0
   -8.4627   -0.1200    1.4230 H    0  0  0  0  0  0  0  0  0  0  0  0
   -9.6436    1.3313   -0.2626 H    0  0  0  0  0  0  0  0  0  0  0  0
  4  7  1  0
  3  8  1  0
  2  9  1  0
  5 10  1  0
  5 11  1  0
 10 12  1  0
  1  2  1  0
  2  3  1  0
  3  4  1  0
  4  5  1  0
  5  6  1  0
  1  6  1  0
  1 13  1  0
  1 14  1  0
  2 15  1  0
  3 16  1  0
  4 17  1  0
  7 18  1  0
  8 19  1  0
  9 20  1  0
 10 21  1  0
 10 22  1  0
 11 23  1  0
 12 24  1  0
M  END
> <COPYRIGHT>
Collection (C) 2016 copyright by the U.S. Secretary of Commerce on behalf of the United States of America. All rights reserved.

> <DATE>
2012-08-03

> <CAS.NUMBER>
6347-01-9

> <METHOD>
B3LYP/6-31G*

> <DIPOLE.MOMENT>
1.9222 debye

> <ELECTRONIC.ENERGY>
-687.156208137 hartree

> <IR.FREQUENCIES>
"Frequency (cm-1)"   "Intensity (km/mol)"
88.5792  1.3937
111.4965  1.4806
145.6544  13.5042
199.3240  5.0140
224.7462  15.2525
249.9002  3.0444
266.3172  8.1206
274.9739  5.1117
317.6761  28.1509
340.9888  14.6506
354.1855  25.6781
399.6997  79.2547
411.7202  41.7036
418.5155  85.8553
454.5848  118.9553
485.3557  113.4207
505.0583  91.8261
520.0735  10.4470
555.1936  20.3352
581.3059  9.1208
606.1688  3.3084
680.8552  63.5237
747.6213  34.7508
850.1874  34.8483
913.6520  3.3450
940.9984  6.9060
1020.4460  44.2486
1033.8510  28.3089
1051.5336  92.5449
1063.0956  68.9721
1071.5908  24.2367
1102.0828  145.3900
1120.8100  105.3625
1134.0947  118.1832
1138.4894  12.6873
1151.6157  21.9930
1209.7778  76.6110
1225.8691  26.5632
1239.6673  22.4199
1269.0694  21.8342
1283.2163  55.1036
1308.7593  21.3784
1344.1047  37.2703
1374.8772  28.8594
1377.4062  51.2347
1380.9320  13.2242
1401.1590  42.6581
1424.9508  61.2135
1433.0392  30.1154
1445.7472  30.4594
1459.8918  13.1880
1474.7285  16.5651
1525.1535  2.5569
1536.1808  3.0168
2994.4711  6.0964
3007.8555  48.6137
3044.0883  41.3832
3062.2048  33.3226
3073.8334  35.3125
3140.5059  21.0917
3146.6748  21.9490
3610.9036  134.4656
3657.6010  65.4793
3711.4209  26.8003
3725.4657  33.3292
3737.9463  36.9798

> <ROTATIONAL.CONSTANTS>
1.57166 GHz
0.72647 GHz
0.56759 GHz

> <SOFTWARE>
Gaussian 09, Revision C.01

> <CONTRIBUTOR>
Jeffrey Qiu

$$$$
