
  NIST    07061522313D 1   1.00000  -687.14770
Copyright by the U.S. Sec. Commerce on behalf of U.S.A. All rights reserved.
 24 23  0  0  1  0  0  0  0  0999 V2000
    0.5761    1.7597    0.9358 C    0  0  0  0  0  0  0  0  0  0  0  0
    1.6395    1.3744   -0.0763 C    0  0  0  0  0  0  0  0  0  0  0  0
    2.8777    0.6343    0.4026 C    0  0  0  0  0  0  0  0  0  0  0  0
    2.9427   -0.8052   -0.1989 C    0  0  0  0  0  0  0  0  0  0  0  0
    3.4188   -0.8222   -1.6571 C    0  0  0  0  0  0  0  0  0  0  0  0
    3.1805   -2.1743   -2.3367 C    0  0  0  0  0  0  0  0  0  0  0  0
    3.9472   -2.2536   -3.5419 O    0  0  0  0  0  0  0  0  0  0  0  0
   -0.5143    2.3811    0.3118 O    0  0  0  0  0  0  0  0  0  0  0  0
    1.4745    1.6480   -1.2578 O    0  0  0  0  0  0  0  0  0  0  0  0
    2.8579    0.5553    1.8116 O    0  0  0  0  0  0  0  0  0  0  0  0
    3.8302   -1.5810    0.5998 O    0  0  0  0  0  0  0  0  0  0  0  0
    4.8263   -0.5713   -1.6135 O    0  0  0  0  0  0  0  0  0  0  0  0
    0.2676    0.8520    1.4777 H    0  0  0  0  0  0  0  0  0  0  0  0
    1.0429    2.4105    1.6923 H    0  0  0  0  0  0  0  0  0  0  0  0
    3.7591    1.1911    0.0438 H    0  0  0  0  0  0  0  0  0  0  0  0
    1.9552   -1.2739   -0.1109 H    0  0  0  0  0  0  0  0  0  0  0  0
    2.9095   -0.0241   -2.2144 H    0  0  0  0  0  0  0  0  0  0  0  0
    3.5489   -2.9804   -1.6964 H    0  0  0  0  0  0  0  0  0  0  0  0
    2.1103   -2.3375   -2.5231 H    0  0  0  0  0  0  0  0  0  0  0  0
    3.5128   -1.6998   -4.2108 H    0  0  0  0  0  0  0  0  0  0  0  0
   -0.2701    2.4459   -0.6319 H    0  0  0  0  0  0  0  0  0  0  0  0
    3.3780   -0.2442    2.0218 H    0  0  0  0  0  0  0  0  0  0  0  0
    4.7103   -1.4206    0.2010 H    0  0  0  0  0  0  0  0  0  0  0  0
    5.1827   -0.9903   -2.4198 H    0  0  0  0  0  0  0  0  0  0  0  0
  1  2  1  0  0  0  0
  1  8  1  0  0  0  0
  1 13  1  0  0  0  0
  1 14  1  0  0  0  0
  2  3  1  0  0  0  0
  2  9  2  0  0  0  0
  3  4  1  0  0  0  0
  3 10  1  0  0  0  0
  3 15  1  6  0  0  0
  4  5  1  0  0  0  0
  4 11  1  0  0  0  0
  4 16  1  1  0  0  0
  5  6  1  0  0  0  0
  5 12  1  0  0  0  0
  5 17  1  6  0  0  0
  6  7  1  0  0  0  0
  6 18  1  0  0  0  0
  6 19  1  0  0  0  0
  7 20  1  0  0  0  0
  8 21  1  0  0  0  0
 10 22  1  0  0  0  0
 11 23  1  0  0  0  0
 12 24  1  0  0  0  0
M  END
> <COPYRIGHT>
Collection (C) 2016 copyright by the U.S. Secretary of Commerce on behalf of the United States of America. All rights reserved.

> <DATE>
2015-07-06

> <CAS.NUMBER>
87-79-6

> <METHOD>
B3LYP/6-31G*

> <DIPOLE.MOMENT>
3.4960 debye

> <ELECTRONIC.ENERGY>
-687.147701107 hartree

> <IR.FREQUENCIES>
"Frequency (cm-1)"   "Intensity (km/mol)"
30.9890  0.1417
61.3980  2.4504
72.4361  5.1181
104.6709  1.6633
121.7067  10.6053
155.7517  5.0113
185.1134  2.1701
225.6414  0.7077
284.7678  8.7135
320.2874  8.7253
333.1507  12.5502
353.5379  0.9325
356.7463  29.2639
376.2330  57.3449
385.4485  82.5968
449.9814  32.8751
501.7880  55.4871
526.6477  6.6637
546.4376  2.3738
580.5376  7.9351
604.3767  84.3925
686.1598  159.8016
696.7347  88.9165
747.8172  37.7323
833.4752  8.7032
882.5677  28.9527
925.7875  20.6851
974.0359  33.4969
1006.7419  36.2832
1064.3438  20.5496
1080.7819  14.1670
1084.8060  67.8796
1118.6161  242.3555
1126.4563  52.4144
1151.9907  18.4408
1177.5189  100.6392
1199.4169  28.8113
1226.9929  2.4912
1252.9916  9.5031
1260.9130  39.4931
1314.6198  42.2299
1321.1442  78.2148
1345.8574  115.0939
1372.3910  37.7579
1391.3162  14.2264
1399.3905  3.5235
1415.7202  29.2327
1434.2685  73.0063
1450.1320  75.8564
1468.9235  37.6562
1471.8580  59.6937
1503.2502  21.3165
1529.0312  2.3653
1778.4245  95.3293
2999.4368  15.3392
3015.9672  21.1380
3032.3384  19.3878
3044.4961  23.8539
3053.6882  10.9617
3070.7474  33.5215
3131.4884  18.0427
3604.2934  117.0669
3627.2018  58.1751
3642.2302  74.1893
3655.7736  89.5930
3732.3876  20.9090

> <ROTATIONAL.CONSTANTS>
1.50683 GHz
0.49732 GHz
0.41652 GHz

> <SOFTWARE>
Gaussian 09, Revision D.01

> <CONTRIBUTOR>
Ashley Zhang

$$$$
