%chk=galactose.chk
%mem=32Gb 
%mproc=20
# opt freq hf/6-31g(d) pop=chelpg

calculo HF galactose

0 1
C
O  1  r2
C  1  r3  2  a3
O  3  r4  1  a4  2  d4
C  3  r5  1  a5  2  d5
O  5  r6  3  a6  1  d6
C  5  r7  3  a7  1  d7
O  7  r8  5  a8  3  d8
C  7  r9  5  a9  3  d9
O  1  r10  2  a10  3  d10
C  9  r11  7  a11  5  d11
O  11  r12  9  a12  7  d12
H  2  r13  1  a13  3  d13
H  4  r14  3  a14  1  d14
H  6  r15  5  a15  3  d15
H  8  r16  7  a16  5  d16
H  12  r17  11  a17  9  d17
H  1  r18  2  a18  3  d18
H  3  r19  1  a19  2  d19
H  5  r20  3  a20  1  d20
H  7  r21  5  a21  3  d21
H  9  r22  7  a22  5  d22
H  11  r23  9  a23  7  d23
H  11  r24  9  a24  7  d24
Variables:
r2= 1.3779
r3= 1.5302
a3= 109.66
r4= 1.4214
a4= 109.86
d4= 300.23
r5= 1.5132
a5= 108.54
d5= 179.60
r6= 1.3828
a6= 107.86
d6= 184.31
r7= 1.5640
a7= 112.61
d7= 305.82
r8= 1.4015
a8= 107.22
d8= 291.16
r9= 1.5567
a9= 110.37
d9=  50.91
r10= 1.4282
a10= 109.99
d10= 120.91
r11= 1.5505
a11= 112.41
d11= 190.19
r12= 1.4206
a12= 109.83
d12= 187.20
r13= 0.9507
a13= 109.11
d13= 181.06
r14= 1.0065
a14= 111.90
d14= 131.76
r15= 0.9549
a15= 108.88
d15= 308.40
r16= 0.9543
a16= 108.39
d16= 180.03
r17= 0.9442
a17= 110.46
d17= 238.63
r18= 1.1042
a18= 107.82
d18= 240.19
r19= 1.1052
a19= 109.10
d19=  60.06
r20= 1.0963
a20= 108.25
d20=  66.95
r21= 1.1014
a21= 109.13
d21= 171.67
r22= 1.0987
a22= 109.20
d22=  69.34
r23= 1.0946
a23= 111.28
d23=  64.79
r24= 1.0965
a24= 108.16
d24= 305.91


